  
       XFOIL         Version 6.97
  
 Calculated polar for: NACA 2412                                       
  
 1 1 Reynolds number fixed          Mach number fixed         
  
 xtrf =   1.000 (top)        1.000 (bottom)  
 Mach =   0.000     Re =     1.000 e 6     Ncrit =   9.000
  
   alpha    CL        CD       CDp       CM     Top_Xtr  Bot_Xtr
  ------ -------- --------- --------- -------- -------- --------
 -15.000  -1.1950   0.03408   0.03028  -0.0686   1.0000   0.0143
 -14.750  -1.1948   0.03167   0.02776  -0.0690   1.0000   0.0145
 -14.500  -1.1923   0.02985   0.02585  -0.0683   1.0000   0.0146
 -14.250  -1.1886   0.02840   0.02431  -0.0668   1.0000   0.0148
 -14.000  -1.1837   0.02722   0.02304  -0.0647   1.0000   0.0150
 -13.750  -1.1740   0.02614   0.02187  -0.0631   1.0000   0.0152
 -13.500  -1.1618   0.02513   0.02077  -0.0617   1.0000   0.0155
 -13.250  -1.1482   0.02421   0.01975  -0.0602   1.0000   0.0157
 -13.000  -1.1338   0.02339   0.01883  -0.0587   1.0000   0.0160
 -12.750  -1.1186   0.02268   0.01804  -0.0571   1.0000   0.0162
 -12.500  -1.1062   0.02179   0.01706  -0.0551   1.0000   0.0164
 -12.250  -1.0978   0.02060   0.01580  -0.0525   1.0000   0.0169
 -12.000  -1.0837   0.01992   0.01507  -0.0505   1.0000   0.0173
 -11.750  -1.0680   0.01938   0.01449  -0.0486   1.0000   0.0177
 -11.500  -1.0524   0.01885   0.01392  -0.0467   1.0000   0.0181
 -11.250  -1.0365   0.01834   0.01335  -0.0447   1.0000   0.0185
 -11.000  -1.0203   0.01784   0.01279  -0.0428   1.0000   0.0189
 -10.750  -1.0035   0.01738   0.01227  -0.0410   1.0000   0.0192
 -10.500  -0.9768   0.01695   0.01176  -0.0411   0.9993   0.0196
 -10.250  -0.9482   0.01590   0.01065  -0.0421   0.9979   0.0205
 -10.000  -0.9168   0.01537   0.01009  -0.0433   0.9964   0.0212
  -9.750  -0.8844   0.01492   0.00961  -0.0445   0.9950   0.0219
  -9.500  -0.8513   0.01453   0.00917  -0.0459   0.9938   0.0228
  -9.250  -0.8177   0.01413   0.00871  -0.0474   0.9927   0.0235
  -9.000  -0.7857   0.01344   0.00800  -0.0487   0.9915   0.0248
  -8.750  -0.7551   0.01305   0.00760  -0.0494   0.9889   0.0258
  -8.500  -0.7225   0.01270   0.00722  -0.0506   0.9868   0.0269
  -8.250  -0.6893   0.01228   0.00675  -0.0519   0.9851   0.0281
  -8.000  -0.6554   0.01181   0.00628  -0.0534   0.9836   0.0298
  -7.750  -0.6200   0.01150   0.00597  -0.0551   0.9824   0.0315
  -7.500  -0.5851   0.01111   0.00554  -0.0568   0.9811   0.0334
  -7.250  -0.5564   0.01075   0.00519  -0.0570   0.9765   0.0355
  -7.000  -0.5251   0.01049   0.00491  -0.0577   0.9724   0.0375
  -6.750  -0.4943   0.01012   0.00454  -0.0584   0.9688   0.0404
  -6.500  -0.4672   0.00987   0.00430  -0.0581   0.9627   0.0432
  -6.250  -0.4398   0.00960   0.00401  -0.0580   0.9570   0.0463
  -6.000  -0.4120   0.00934   0.00377  -0.0579   0.9517   0.0501
  -5.750  -0.3859   0.00911   0.00353  -0.0574   0.9442   0.0544
  -5.500  -0.3585   0.00889   0.00331  -0.0572   0.9379   0.0594
  -5.250  -0.3321   0.00865   0.00310  -0.0568   0.9297   0.0656
  -5.000  -0.3049   0.00847   0.00290  -0.0565   0.9224   0.0720
  -4.750  -0.2781   0.00827   0.00272  -0.0563   0.9132   0.0805
  -4.500  -0.2511   0.00806   0.00254  -0.0560   0.9046   0.0908
  -4.250  -0.2240   0.00787   0.00238  -0.0557   0.8947   0.1027
  -4.000  -0.1967   0.00770   0.00223  -0.0555   0.8849   0.1161
  -3.500  -0.1421   0.00738   0.00196  -0.0551   0.8628   0.1486
  -3.250  -0.1148   0.00723   0.00184  -0.0549   0.8509   0.1682
  -3.000  -0.0875   0.00708   0.00173  -0.0547   0.8386   0.1900
  -2.250  -0.0054   0.00670   0.00147  -0.0541   0.7974   0.2661
  -2.000   0.0220   0.00659   0.00141  -0.0540   0.7827   0.2960
  -1.750   0.0493   0.00648   0.00135  -0.0538   0.7675   0.3283
  -1.500   0.0765   0.00636   0.00130  -0.0536   0.7519   0.3639
  -1.250   0.1035   0.00623   0.00125  -0.0534   0.7356   0.4072
  -0.750   0.1570   0.00593   0.00120  -0.0529   0.7026   0.5221
  -0.500   0.1838   0.00582   0.00120  -0.0526   0.6858   0.5775
  -0.250   0.2105   0.00572   0.00120  -0.0523   0.6688   0.6300
   0.000   0.2371   0.00564   0.00122  -0.0520   0.6517   0.6799
   0.250   0.2635   0.00558   0.00124  -0.0516   0.6349   0.7273
   0.500   0.2897   0.00553   0.00128  -0.0511   0.6181   0.7734
   0.750   0.3157   0.00549   0.00132  -0.0505   0.6018   0.8185
   1.000   0.3413   0.00548   0.00138  -0.0498   0.5859   0.8598
   1.250   0.3666   0.00550   0.00145  -0.0489   0.5705   0.8968
   1.500   0.3923   0.00556   0.00152  -0.0482   0.5553   0.9271
   1.750   0.4195   0.00566   0.00159  -0.0478   0.5405   0.9509
   2.000   0.4496   0.00578   0.00166  -0.0481   0.5256   0.9674
   2.250   0.4827   0.00591   0.00173  -0.0491   0.5105   0.9788
   2.500   0.5186   0.00605   0.00181  -0.0508   0.4952   0.9855
   2.750   0.5544   0.00620   0.00189  -0.0526   0.4797   0.9912
   3.000   0.5928   0.00635   0.00197  -0.0549   0.4636   0.9942
   3.250   0.6306   0.00650   0.00205  -0.0571   0.4471   0.9975
   3.500   0.6666   0.00665   0.00214  -0.0589   0.4302   1.0000
   3.750   0.6906   0.00679   0.00222  -0.0581   0.4147   1.0000
   4.000   0.7146   0.00693   0.00230  -0.0573   0.3980   1.0000
   4.250   0.7386   0.00709   0.00239  -0.0565   0.3798   1.0000
   4.500   0.7624   0.00728   0.00251  -0.0557   0.3596   1.0000
   4.750   0.7858   0.00751   0.00264  -0.0548   0.3378   1.0000
   5.000   0.8094   0.00775   0.00278  -0.0540   0.3153   1.0000
   5.250   0.8325   0.00804   0.00295  -0.0531   0.2907   1.0000
   5.500   0.8558   0.00833   0.00314  -0.0522   0.2655   1.0000
   5.750   0.8789   0.00868   0.00336  -0.0514   0.2389   1.0000
   6.000   0.9020   0.00905   0.00360  -0.0505   0.2121   1.0000
   6.250   0.9252   0.00943   0.00386  -0.0497   0.1860   1.0000
   6.500   0.9484   0.00984   0.00414  -0.0490   0.1613   1.0000
   6.750   0.9714   0.01027   0.00444  -0.0482   0.1384   1.0000
   7.000   0.9947   0.01068   0.00475  -0.0474   0.1184   1.0000
   7.250   1.0178   0.01111   0.00508  -0.0467   0.1014   1.0000
   7.500   1.0410   0.01153   0.00541  -0.0459   0.0869   1.0000
   7.750   1.0642   0.01194   0.00576  -0.0452   0.0751   1.0000
   8.000   1.0875   0.01234   0.00611  -0.0445   0.0660   1.0000
   8.250   1.1110   0.01271   0.00646  -0.0439   0.0590   1.0000
   8.500   1.1342   0.01310   0.00682  -0.0432   0.0528   1.0000
   8.750   1.1567   0.01355   0.00724  -0.0423   0.0472   1.0000
   9.000   1.1798   0.01392   0.00761  -0.0416   0.0436   1.0000
   9.250   1.2018   0.01438   0.00805  -0.0408   0.0399   1.0000
   9.500   1.2244   0.01477   0.00845  -0.0400   0.0372   1.0000
   9.750   1.2450   0.01530   0.00897  -0.0389   0.0342   1.0000
  10.000   1.2674   0.01567   0.00937  -0.0381   0.0324   1.0000
  10.250   1.2879   0.01616   0.00986  -0.0371   0.0305   1.0000
  10.500   1.3072   0.01673   0.01045  -0.0358   0.0287   1.0000
  10.750   1.3278   0.01715   0.01092  -0.0348   0.0275   1.0000
  11.000   1.3469   0.01766   0.01144  -0.0336   0.0262   1.0000
  11.250   1.3610   0.01840   0.01220  -0.0316   0.0246   1.0000
  11.500   1.3781   0.01887   0.01271  -0.0300   0.0239   1.0000
  11.750   1.3942   0.01940   0.01329  -0.0283   0.0230   1.0000
  12.000   1.4091   0.02001   0.01394  -0.0265   0.0222   1.0000
  12.250   1.4216   0.02078   0.01474  -0.0246   0.0214   1.0000
  12.500   1.4296   0.02186   0.01588  -0.0221   0.0205   1.0000
  12.750   1.4442   0.02255   0.01663  -0.0206   0.0201   1.0000
  13.000   1.4571   0.02338   0.01751  -0.0191   0.0195   1.0000
  13.250   1.4691   0.02428   0.01847  -0.0175   0.0190   1.0000
  13.500   1.4804   0.02528   0.01952  -0.0160   0.0184   1.0000
  13.750   1.4891   0.02650   0.02079  -0.0144   0.0179   1.0000
  14.000   1.4922   0.02822   0.02258  -0.0127   0.0173   1.0000
  14.250   1.4973   0.02987   0.02431  -0.0112   0.0169   1.0000
  14.500   1.5063   0.03127   0.02579  -0.0103   0.0166   1.0000
  14.750   1.5136   0.03289   0.02749  -0.0094   0.0163   1.0000
  15.000   1.5195   0.03470   0.02938  -0.0086   0.0160   1.0000
