  
       XFOIL         Version 6.97
  
 Calculated polar for: NACA 2412                                       
  
 1 1 Reynolds number fixed          Mach number fixed         
  
 xtrf =   1.000 (top)        1.000 (bottom)  
 Mach =   0.000     Re =     1.000 e 6     Ncrit =   9.000
  
   alpha    CL        CD       CDp       CM     Top_Xtr  Bot_Xtr
  ------ -------- --------- --------- -------- -------- --------
 -15.000  -0.4296   0.04618   0.04209  -0.1885   0.8771   0.0229
 -14.000  -0.2664   0.04397   0.03961  -0.2070   0.8774   0.0261
 -13.750  -0.2382   0.04331   0.03890  -0.2085   0.8775   0.0269
 -13.500  -0.2103   0.04280   0.03833  -0.2097   0.8775   0.0277
 -13.250  -0.1786   0.04227   0.03777  -0.2121   0.8776   0.0290
 -13.000  -0.1512   0.04195   0.03742  -0.2131   0.8777   0.0301
 -12.750  -0.1246   0.04173   0.03716  -0.2137   0.8778   0.0313
 -12.500  -0.0955   0.04151   0.03692  -0.2151   0.8779   0.0329
 -12.250  -0.0691   0.04141   0.03680  -0.2156   0.8781   0.0346
 -12.000  -0.0418   0.04134   0.03671  -0.2163   0.8782   0.0366
 -11.750  -0.0147   0.04134   0.03670  -0.2169   0.8783   0.0388
 -11.500   0.0122   0.04137   0.03672  -0.2173   0.8784   0.0414
 -11.250   0.0379   0.04144   0.03678  -0.2175   0.8786   0.0443
 -11.000   0.0652   0.04153   0.03688  -0.2180   0.8787   0.0478
 -10.750   0.0919   0.04165   0.03700  -0.2183   0.8789   0.0513
 -10.500   0.1183   0.04180   0.03715  -0.2185   0.8790   0.0552
 -10.000   0.1711   0.04217   0.03753  -0.2189   0.8794   0.0641
  -9.750   0.1976   0.04238   0.03776  -0.2191   0.8795   0.0696
  -9.500   0.2239   0.04261   0.03800  -0.2192   0.8797   0.0761
  -9.250   0.2519   0.04284   0.03828  -0.2196   0.8798   0.0843
  -9.000   0.2817   0.04309   0.03855  -0.2203   0.8796   0.0938
  -8.750   0.3138   0.04336   0.03886  -0.2214   0.8792   0.1054
  -8.500   0.3457   0.04365   0.03919  -0.2224   0.8790   0.1187
  -8.250   0.3758   0.04394   0.03953  -0.2231   0.8788   0.1334
  -8.000   0.4045   0.04423   0.03987  -0.2236   0.8787   0.1500
  -7.750   0.4331   0.04452   0.04022  -0.2240   0.8786   0.1672
  -7.500   0.4615   0.04483   0.04058  -0.2243   0.8786   0.1844
  -7.250   0.4903   0.04516   0.04096  -0.2247   0.8785   0.2015
  -7.000   0.5195   0.04550   0.04136  -0.2252   0.8783   0.2195
  -6.750   0.5494   0.04588   0.04179  -0.2257   0.8782   0.2390
  -6.500   0.5800   0.04631   0.04227  -0.2264   0.8781   0.2587
  -6.250   0.6119   0.04678   0.04282  -0.2273   0.8779   0.2819
  -6.000   0.6446   0.04733   0.04342  -0.2284   0.8778   0.3041
  -5.750   0.6775   0.04794   0.04409  -0.2294   0.8776   0.3243
  -5.500   0.7107   0.04861   0.04481  -0.2306   0.8775   0.3450
  -5.250   0.7447   0.04937   0.04563  -0.2318   0.8774   0.3668
  -5.000   0.7815   0.05034   0.04666  -0.2336   0.8773   0.3884
  -4.750   0.7409   0.04733   0.04370  -0.2210   0.8703   0.3898
  -4.500   0.7767   0.04750   0.04394  -0.2224   0.8695   0.4131
  -4.250   0.8154   0.04779   0.04430  -0.2244   0.8689   0.4376
  -4.000   0.8575   0.04826   0.04483  -0.2269   0.8684   0.4653
  -3.750   0.9010   0.04913   0.04577  -0.2297   0.8679   0.4905
  -3.500   0.9018   0.04570   0.04238  -0.2243   0.8528   0.5040
  -3.250   0.9516   0.04469   0.04142  -0.2279   0.8504   0.5269
  -2.750   0.9619   0.04502   0.04187  -0.2199   0.8219   0.5476
  -2.500   1.0262   0.04253   0.03940  -0.2258   0.8293   0.5644
  -2.250   1.0712   0.04058   0.03739  -0.2287   0.7713   0.5775
  -2.000   1.1419   0.03645   0.03264  -0.2360   0.6761   0.5909
  -1.750   1.1585   0.03664   0.03249  -0.2337   0.6177   0.5994
  -1.500   1.1797   0.03666   0.03232  -0.2323   0.5784   0.6069
  -1.250   1.2013   0.03674   0.03222  -0.2310   0.5440   0.6143
  -1.000   1.2228   0.03683   0.03215  -0.2296   0.5117   0.6218
  -0.750   1.2448   0.03692   0.03211  -0.2284   0.4837   0.6277
  -0.500   1.2671   0.03701   0.03209  -0.2273   0.4596   0.6340
  -0.250   1.2893   0.03709   0.03207  -0.2261   0.4352   0.6394
   0.000   1.3114   0.03718   0.03204  -0.2249   0.4091   0.6449
   0.250   1.3336   0.03726   0.03200  -0.2237   0.3822   0.6503
   0.500   1.3551   0.03733   0.03193  -0.2224   0.3520   0.6548
   0.750   1.3768   0.03740   0.03184  -0.2211   0.3200   0.6601
   1.000   1.3979   0.03746   0.03173  -0.2197   0.2860   0.6636
   1.250   1.4189   0.03750   0.03156  -0.2183   0.2467   0.6676
   1.500   1.4407   0.03755   0.03141  -0.2170   0.2126   0.6728
   1.750   1.4617   0.03762   0.03131  -0.2156   0.1801   0.6758
   2.000   1.4817   0.03780   0.03132  -0.2141   0.1507   0.6787
   2.250   1.5016   0.03805   0.03142  -0.2125   0.1264   0.6824
   2.500   1.5212   0.03834   0.03158  -0.2109   0.1050   0.6862
   2.750   1.5404   0.03865   0.03182  -0.2092   0.0888   0.6884
   3.000   1.5595   0.03900   0.03210  -0.2075   0.0763   0.6910
   3.250   1.5786   0.03938   0.03242  -0.2058   0.0660   0.6943
   3.500   1.5978   0.03977   0.03276  -0.2041   0.0577   0.6980
   3.750   1.6160   0.04019   0.03316  -0.2023   0.0513   0.6995
   4.000   1.6340   0.04064   0.03360  -0.2004   0.0461   0.7010
   4.250   1.6516   0.04112   0.03407  -0.1985   0.0419   0.7026
   4.500   1.6693   0.04161   0.03457  -0.1966   0.0383   0.7046
   4.750   1.6871   0.04213   0.03510  -0.1948   0.0354   0.7079
   5.000   1.7038   0.04272   0.03569  -0.1927   0.0329   0.7103
   5.250   1.7201   0.04328   0.03628  -0.1907   0.0309   0.7112
   5.500   1.7351   0.04395   0.03697  -0.1884   0.0291   0.7122
   5.750   1.7502   0.04460   0.03767  -0.1861   0.0276   0.7132
   6.000   1.7632   0.04541   0.03850  -0.1836   0.0261   0.7143
   6.250   1.7773   0.04616   0.03930  -0.1812   0.0249   0.7157
   6.500   1.7911   0.04694   0.04012  -0.1789   0.0238   0.7177
   6.750   1.8036   0.04791   0.04110  -0.1764   0.0226   0.7219
   7.000   1.8164   0.04876   0.04202  -0.1739   0.0218   0.7225
   7.250   1.8289   0.04962   0.04293  -0.1715   0.0209   0.7231
   7.500   1.8400   0.05060   0.04395  -0.1688   0.0201   0.7237
   7.750   1.8468   0.05192   0.04533  -0.1656   0.0192   0.7244
   8.000   1.8582   0.05289   0.04637  -0.1631   0.0186   0.7252
   8.250   1.8670   0.05407   0.04762  -0.1603   0.0180   0.7262
   8.500   1.8752   0.05533   0.04894  -0.1574   0.0174   0.7274
   8.750   1.8821   0.05673   0.05039  -0.1545   0.0169   0.7288
   9.000   1.8840   0.05862   0.05234  -0.1510   0.0163   0.7307
   9.250   1.8916   0.06008   0.05388  -0.1483   0.0159   0.7340
   9.500   1.8972   0.06161   0.05550  -0.1455   0.0156   0.7346
   9.750   1.9016   0.06329   0.05727  -0.1426   0.0152   0.7351
  10.000   1.9055   0.06506   0.05912  -0.1397   0.0148   0.7358
  10.250   1.9085   0.06696   0.06110  -0.1369   0.0144   0.7366
  10.500   1.9092   0.06915   0.06337  -0.1341   0.0141   0.7374
  10.750   1.9069   0.07174   0.06605  -0.1312   0.0138   0.7383
  11.000   1.8984   0.07514   0.06955  -0.1281   0.0135   0.7392
  11.250   1.9011   0.07739   0.07191  -0.1261   0.0133   0.7405
  11.500   1.9015   0.07998   0.07459  -0.1241   0.0131   0.7420
  11.750   1.9016   0.08269   0.07741  -0.1224   0.0128   0.7438
  12.000   1.9002   0.08570   0.08051  -0.1209   0.0126   0.7459
  12.250   1.8983   0.08875   0.08366  -0.1195   0.0123   0.7465
  12.500   1.8948   0.09208   0.08710  -0.1184   0.0121   0.7470
  12.750   1.8902   0.09564   0.09076  -0.1176   0.0119   0.7476
  13.000   1.8850   0.09933   0.09455  -0.1170   0.0118   0.7482
  13.250   1.8775   0.10341   0.09874  -0.1168   0.0116   0.7489
  13.500   1.8687   0.10775   0.10319  -0.1170   0.0114   0.7495
  13.750   1.8567   0.11267   0.10822  -0.1177   0.0113   0.7502
  14.000   1.8437   0.11784   0.11351  -0.1188   0.0111   0.7509
  14.250   1.8295   0.12331   0.11911  -0.1204   0.0110   0.7516
  14.500   1.8246   0.12736   0.12328  -0.1217   0.0109   0.7526
  14.750   1.8189   0.13161   0.12764  -0.1233   0.0108   0.7537
  15.000   1.8124   0.13604   0.13219  -0.1251   0.0108   0.7547
