  
       XFOIL         Version 6.97
  
 Calculated polar for: NACA 0012                                       
  
 1 1 Reynolds number fixed          Mach number fixed         
  
 xtrf =   1.000 (top)        1.000 (bottom)  
 Mach =   0.000     Re =     1.000 e 6     Ncrit =   9.000
  
   alpha    CL        CD       CDp       CM     Top_Xtr  Bot_Xtr
  ------ -------- --------- --------- -------- -------- --------
 -15.000  -1.3792   0.03172   0.02701  -0.0313   1.0000   0.0151
 -14.750  -1.3729   0.03007   0.02528  -0.0306   1.0000   0.0154
 -14.500  -1.3659   0.02858   0.02371  -0.0296   1.0000   0.0156
 -14.250  -1.3581   0.02727   0.02231  -0.0283   1.0000   0.0159
 -14.000  -1.3490   0.02612   0.02108  -0.0269   1.0000   0.0162
 -13.750  -1.3383   0.02513   0.02001  -0.0254   1.0000   0.0164
 -13.500  -1.3260   0.02431   0.01910  -0.0238   1.0000   0.0166
 -13.250  -1.3228   0.02299   0.01768  -0.0210   1.0000   0.0170
 -13.000  -1.3155   0.02195   0.01659  -0.0184   1.0000   0.0174
 -12.750  -1.3005   0.02118   0.01578  -0.0168   1.0000   0.0179
 -12.500  -1.2830   0.02053   0.01509  -0.0156   1.0000   0.0183
 -12.250  -1.2645   0.01993   0.01443  -0.0145   1.0000   0.0188
 -12.000  -1.2450   0.01936   0.01381  -0.0134   1.0000   0.0194
 -11.750  -1.2243   0.01888   0.01327  -0.0125   1.0000   0.0198
 -11.500  -1.2065   0.01812   0.01245  -0.0112   1.0000   0.0205
 -11.250  -1.1876   0.01743   0.01174  -0.0100   1.0000   0.0213
 -11.000  -1.1664   0.01693   0.01121  -0.0091   1.0000   0.0220
 -10.750  -1.1446   0.01648   0.01072  -0.0083   1.0000   0.0228
 -10.500  -1.1223   0.01608   0.01027  -0.0074   1.0000   0.0235
 -10.250  -1.1014   0.01554   0.00968  -0.0064   1.0000   0.0244
 -10.000  -1.0809   0.01498   0.00911  -0.0053   1.0000   0.0255
  -9.750  -1.0588   0.01460   0.00872  -0.0044   1.0000   0.0267
  -9.500  -1.0364   0.01427   0.00836  -0.0034   1.0000   0.0278
  -9.250  -1.0155   0.01384   0.00789  -0.0022   1.0000   0.0291
  -9.000  -0.9948   0.01341   0.00747  -0.0010   1.0000   0.0307
  -8.750  -0.9731   0.01309   0.00714   0.0002   1.0000   0.0322
  -8.500  -0.9512   0.01283   0.00684   0.0013   1.0000   0.0334
  -8.250  -0.9313   0.01238   0.00641   0.0027   1.0000   0.0359
  -8.000  -0.9100   0.01211   0.00613   0.0040   1.0000   0.0381
  -7.750  -0.8891   0.01180   0.00582   0.0053   1.0000   0.0405
  -7.500  -0.8685   0.01149   0.00553   0.0067   1.0000   0.0436
  -7.250  -0.8470   0.01127   0.00529   0.0079   1.0000   0.0460
  -7.000  -0.8266   0.01094   0.00499   0.0093   1.0000   0.0506
  -6.750  -0.7978   0.01067   0.00474   0.0089   0.9992   0.0555
  -6.500  -0.7637   0.01036   0.00447   0.0074   0.9976   0.0619
  -6.250  -0.7295   0.01004   0.00420   0.0059   0.9957   0.0707
  -6.000  -0.6948   0.00973   0.00395   0.0043   0.9940   0.0813
  -5.750  -0.6596   0.00942   0.00371   0.0025   0.9925   0.0938
  -5.500  -0.6255   0.00913   0.00348   0.0011   0.9904   0.1087
  -5.250  -0.5925   0.00880   0.00326  -0.0001   0.9874   0.1271
  -5.000  -0.5580   0.00848   0.00304  -0.0017   0.9849   0.1484
  -4.750  -0.5227   0.00815   0.00284  -0.0035   0.9828   0.1727
  -4.500  -0.4878   0.00785   0.00265  -0.0051   0.9804   0.1990
  -4.250  -0.4591   0.00756   0.00248  -0.0053   0.9737   0.2254
  -4.000  -0.4278   0.00728   0.00231  -0.0060   0.9685   0.2537
  -3.750  -0.4006   0.00703   0.00217  -0.0058   0.9598   0.2808
  -3.500  -0.3723   0.00681   0.00203  -0.0058   0.9517   0.3088
  -3.250  -0.3462   0.00659   0.00191  -0.0053   0.9405   0.3367
  -3.000  -0.3200   0.00639   0.00180  -0.0048   0.9285   0.3641
  -2.750  -0.2936   0.00622   0.00169  -0.0044   0.9156   0.3916
  -2.500  -0.2672   0.00606   0.00160  -0.0039   0.9011   0.4197
  -2.250  -0.2408   0.00592   0.00151  -0.0034   0.8851   0.4472
  -2.000  -0.2142   0.00580   0.00143  -0.0030   0.8675   0.4744
  -1.750  -0.1876   0.00570   0.00136  -0.0026   0.8487   0.5017
  -1.500  -0.1609   0.00561   0.00130  -0.0022   0.8283   0.5285
  -1.250  -0.1341   0.00555   0.00125  -0.0018   0.8069   0.5555
  -1.000  -0.1074   0.00549   0.00121  -0.0014   0.7848   0.5824
  -0.750  -0.0805   0.00544   0.00118  -0.0011   0.7610   0.6090
  -0.500  -0.0537   0.00542   0.00115  -0.0007   0.7373   0.6356
  -0.250  -0.0268   0.00540   0.00114  -0.0004   0.7121   0.6613
   0.000   0.0000   0.00540   0.00114  -0.0000   0.6870   0.6870
   0.250   0.0269   0.00540   0.00114   0.0003   0.6613   0.7122
   0.500   0.0538   0.00542   0.00115   0.0007   0.6356   0.7369
   0.750   0.0805   0.00544   0.00118   0.0011   0.6090   0.7612
   1.000   0.1074   0.00549   0.00121   0.0014   0.5828   0.7847
   1.250   0.1342   0.00555   0.00125   0.0018   0.5555   0.8068
   1.500   0.1609   0.00561   0.00130   0.0022   0.5286   0.8284
   1.750   0.1876   0.00570   0.00136   0.0026   0.5018   0.8486
   2.000   0.2143   0.00580   0.00143   0.0030   0.4743   0.8676
   2.250   0.2409   0.00592   0.00151   0.0034   0.4471   0.8850
   2.500   0.2673   0.00606   0.00160   0.0039   0.4197   0.9011
   2.750   0.2936   0.00622   0.00169   0.0044   0.3921   0.9156
   3.000   0.3200   0.00639   0.00180   0.0048   0.3641   0.9285
   3.250   0.3463   0.00659   0.00191   0.0053   0.3368   0.9404
   3.500   0.3723   0.00681   0.00203   0.0058   0.3086   0.9517
   3.750   0.4006   0.00703   0.00217   0.0058   0.2808   0.9599
   4.000   0.4279   0.00728   0.00231   0.0060   0.2537   0.9685
   4.250   0.4591   0.00756   0.00248   0.0053   0.2252   0.9738
   4.500   0.4878   0.00785   0.00265   0.0051   0.1991   0.9804
   4.750   0.5227   0.00815   0.00284   0.0035   0.1728   0.9828
   5.000   0.5580   0.00848   0.00304   0.0017   0.1485   0.9849
   5.250   0.5925   0.00880   0.00325   0.0002   0.1271   0.9874
   5.500   0.6254   0.00912   0.00348  -0.0011   0.1087   0.9905
   5.750   0.6596   0.00942   0.00371  -0.0025   0.0939   0.9925
   6.000   0.6948   0.00973   0.00395  -0.0043   0.0813   0.9940
   6.250   0.7296   0.01004   0.00419  -0.0059   0.0707   0.9958
   6.500   0.7638   0.01036   0.00446  -0.0074   0.0619   0.9976
   6.750   0.7979   0.01067   0.00473  -0.0089   0.0555   0.9993
   7.000   0.8264   0.01094   0.00499  -0.0092   0.0506   1.0000
   7.250   0.8468   0.01127   0.00528  -0.0079   0.0460   1.0000
   7.500   0.8683   0.01149   0.00552  -0.0066   0.0436   1.0000
   7.750   0.8890   0.01180   0.00582  -0.0053   0.0405   1.0000
   8.000   0.9098   0.01211   0.00613  -0.0039   0.0381   1.0000
   8.250   0.9312   0.01238   0.00641  -0.0027   0.0359   1.0000
   8.500   0.9511   0.01282   0.00684  -0.0013   0.0334   1.0000
   8.750   0.9730   0.01309   0.00714  -0.0001   0.0322   1.0000
   9.000   0.9947   0.01341   0.00747   0.0010   0.0307   1.0000
   9.250   1.0154   0.01383   0.00789   0.0022   0.0291   1.0000
   9.500   1.0363   0.01427   0.00836   0.0034   0.0278   1.0000
   9.750   1.0588   0.01460   0.00871   0.0044   0.0267   1.0000
  10.000   1.0810   0.01498   0.00911   0.0053   0.0255   1.0000
  10.250   1.1015   0.01554   0.00968   0.0064   0.0244   1.0000
  10.500   1.1225   0.01608   0.01027   0.0074   0.0235   1.0000
  10.750   1.1448   0.01649   0.01072   0.0082   0.0228   1.0000
  11.000   1.1666   0.01694   0.01121   0.0091   0.0220   1.0000
  11.250   1.1879   0.01743   0.01174   0.0099   0.0213   1.0000
  11.500   1.2068   0.01813   0.01246   0.0111   0.0205   1.0000
  11.750   1.2247   0.01888   0.01327   0.0124   0.0198   1.0000
  12.000   1.2455   0.01936   0.01381   0.0133   0.0194   1.0000
  12.250   1.2649   0.01993   0.01444   0.0144   0.0188   1.0000
  12.500   1.2835   0.02054   0.01509   0.0155   0.0183   1.0000
  12.750   1.3011   0.02119   0.01578   0.0167   0.0179   1.0000
  13.000   1.3162   0.02196   0.01660   0.0182   0.0174   1.0000
  13.250   1.3237   0.02299   0.01769   0.0208   0.0170   1.0000
  13.500   1.3273   0.02429   0.01909   0.0236   0.0166   1.0000
  13.750   1.3396   0.02513   0.02000   0.0251   0.0164   1.0000
  14.000   1.3501   0.02612   0.02108   0.0267   0.0162   1.0000
  14.250   1.3594   0.02726   0.02231   0.0281   0.0159   1.0000
  14.500   1.3673   0.02858   0.02371   0.0293   0.0156   1.0000
  14.750   1.3745   0.03005   0.02526   0.0303   0.0154   1.0000
  15.000   1.3808   0.03170   0.02700   0.0310   0.0151   1.0000
