  
       XFOIL         Version 6.97
  
 Calculated polar for: NACA 2412                                       
  
 1 1 Reynolds number fixed          Mach number fixed         
  
 xtrf =   1.000 (top)        1.000 (bottom)  
 Mach =   0.000     Re =     1.000 e 6     Ncrit =   9.000
  
   alpha    CL        CD       CDp       CM     Top_Xtr  Bot_Xtr
  ------ -------- --------- --------- -------- -------- --------
 -15.000  -0.7980   0.02249   0.01805  -0.1472   0.9031   0.0174
 -14.750  -0.7750   0.02162   0.01712  -0.1484   0.9034   0.0179
 -14.500  -0.7515   0.02081   0.01623  -0.1493   0.9037   0.0183
 -14.250  -0.7272   0.02009   0.01543  -0.1502   0.9041   0.0188
 -14.000  -0.7023   0.01946   0.01471  -0.1509   0.9044   0.0191
 -13.750  -0.6800   0.01830   0.01347  -0.1519   0.9048   0.0197
 -13.500  -0.6550   0.01761   0.01275  -0.1526   0.9052   0.0203
 -13.250  -0.6290   0.01710   0.01219  -0.1532   0.9056   0.0209
 -13.000  -0.6027   0.01662   0.01166  -0.1537   0.9060   0.0215
 -12.750  -0.5759   0.01623   0.01120  -0.1542   0.9064   0.0221
 -12.500  -0.5502   0.01556   0.01048  -0.1548   0.9068   0.0229
 -12.250  -0.5237   0.01507   0.00996  -0.1553   0.9072   0.0237
 -12.000  -0.4965   0.01470   0.00955  -0.1558   0.9076   0.0245
 -11.750  -0.4692   0.01437   0.00917  -0.1562   0.9080   0.0254
 -11.500  -0.4422   0.01391   0.00867  -0.1567   0.9084   0.0263
 -11.250  -0.4148   0.01355   0.00828  -0.1571   0.9088   0.0275
 -11.000  -0.3870   0.01329   0.00799  -0.1575   0.9091   0.0287
 -10.750  -0.3593   0.01299   0.00765  -0.1579   0.9095   0.0299
 -10.500  -0.3315   0.01265   0.00731  -0.1584   0.9098   0.0314
 -10.250  -0.3033   0.01245   0.00709  -0.1588   0.9103   0.0330
 -10.000  -0.2755   0.01215   0.00679  -0.1592   0.9107   0.0349
  -9.750  -0.2476   0.01199   0.00662  -0.1596   0.9112   0.0369
  -9.500  -0.2201   0.01178   0.00642  -0.1599   0.9117   0.0393
  -9.250  -0.1925   0.01169   0.00632  -0.1601   0.9122   0.0416
  -9.000  -0.1652   0.01153   0.00618  -0.1604   0.9128   0.0445
  -8.750  -0.1382   0.01145   0.00610  -0.1605   0.9133   0.0476
  -8.500  -0.1116   0.01142   0.00607  -0.1606   0.9139   0.0511
  -8.250  -0.0854   0.01137   0.00604  -0.1606   0.9145   0.0554
  -8.000  -0.0565   0.01112   0.00581  -0.1609   0.9134   0.0604
  -7.750  -0.0236   0.01060   0.00527  -0.1616   0.9108   0.0668
  -7.500   0.0045   0.01030   0.00499  -0.1616   0.9080   0.0737
  -7.250   0.0324   0.01006   0.00479  -0.1617   0.9059   0.0817
  -7.000   0.0610   0.00988   0.00463  -0.1619   0.9049   0.0912
  -6.750   0.0898   0.00969   0.00448  -0.1622   0.9040   0.1029
  -6.500   0.1186   0.00951   0.00435  -0.1624   0.9033   0.1158
  -6.250   0.1477   0.00933   0.00422  -0.1627   0.9027   0.1299
  -6.000   0.1771   0.00916   0.00410  -0.1631   0.9020   0.1456
  -5.750   0.2067   0.00898   0.00397  -0.1635   0.9012   0.1639
  -5.500   0.2362   0.00882   0.00387  -0.1638   0.9004   0.1833
  -5.250   0.2639   0.00871   0.00384  -0.1639   0.8994   0.2035
  -5.000   0.2916   0.00860   0.00381  -0.1639   0.8981   0.2245
  -4.750   0.3199   0.00846   0.00375  -0.1640   0.8967   0.2482
  -4.250   0.3789   0.00807   0.00351  -0.1646   0.8936   0.2968
  -4.000   0.4097   0.00784   0.00334  -0.1650   0.8920   0.3235
  -3.750   0.4397   0.00766   0.00322  -0.1654   0.8903   0.3520
  -3.500   0.4669   0.00753   0.00320  -0.1652   0.8881   0.3810
  -3.250   0.4957   0.00734   0.00310  -0.1653   0.8856   0.4135
  -3.000   0.5261   0.00707   0.00293  -0.1657   0.8830   0.4507
  -2.750   0.5568   0.00684   0.00277  -0.1662   0.8804   0.4881
  -2.500   0.5838   0.00670   0.00274  -0.1659   0.8769   0.5200
  -2.250   0.6134   0.00648   0.00259  -0.1660   0.8732   0.5511
  -2.000   0.6428   0.00630   0.00247  -0.1661   0.8694   0.5778
  -1.750   0.6703   0.00615   0.00238  -0.1658   0.8642   0.5998
  -1.500   0.6989   0.00599   0.00226  -0.1657   0.8590   0.6194
  -1.250   0.7262   0.00584   0.00215  -0.1653   0.8514   0.6367
  -1.000   0.7520   0.00572   0.00210  -0.1647   0.8401   0.6529
  -0.750   0.7615   0.00594   0.00191  -0.1602   0.7295   0.6661
  -0.500   0.7717   0.00654   0.00225  -0.1563   0.6719   0.6781
  -0.250   0.7875   0.00693   0.00249  -0.1536   0.6348   0.6901
   0.000   0.8057   0.00724   0.00269  -0.1515   0.6045   0.7007
   0.250   0.8243   0.00754   0.00288  -0.1494   0.5767   0.7103
   0.500   0.8426   0.00781   0.00307  -0.1473   0.5525   0.7193
   0.750   0.8613   0.00807   0.00325  -0.1453   0.5302   0.7275
   1.000   0.8816   0.00835   0.00344  -0.1436   0.5085   0.7351
   1.250   0.9032   0.00863   0.00363  -0.1422   0.4877   0.7417
   1.500   0.9261   0.00888   0.00383  -0.1411   0.4690   0.7478
   1.750   0.9489   0.00916   0.00403  -0.1400   0.4496   0.7536
   2.000   0.9717   0.00945   0.00423  -0.1390   0.4296   0.7587
   2.250   0.9953   0.00970   0.00444  -0.1380   0.4118   0.7630
   2.500   1.0186   0.01000   0.00464  -0.1371   0.3909   0.7682
   2.750   1.0412   0.01032   0.00487  -0.1360   0.3655   0.7718
   3.000   1.0637   0.01069   0.00512  -0.1349   0.3406   0.7767
   3.250   1.0862   0.01107   0.00537  -0.1338   0.3119   0.7815
   3.500   1.1084   0.01147   0.00563  -0.1328   0.2824   0.7852
   3.750   1.1307   0.01189   0.00591  -0.1317   0.2544   0.7891
   4.000   1.1528   0.01234   0.00621  -0.1307   0.2249   0.7924
   4.250   1.1743   0.01281   0.00652  -0.1295   0.1948   0.7956
   4.500   1.1956   0.01332   0.00687  -0.1284   0.1663   0.7990
   4.750   1.2169   0.01380   0.00721  -0.1272   0.1415   0.8023
   5.000   1.2378   0.01427   0.00756  -0.1260   0.1197   0.8053
   5.250   1.2588   0.01471   0.00792  -0.1248   0.1019   0.8082
   6.000   1.3209   0.01602   0.00906  -0.1210   0.0660   0.8178
   6.500   1.3615   0.01689   0.00989  -0.1184   0.0526   0.8242
   6.750   1.3814   0.01732   0.01033  -0.1170   0.0477   0.8277
   7.000   1.4008   0.01779   0.01080  -0.1155   0.0435   0.8313
   7.250   1.4200   0.01825   0.01128  -0.1141   0.0400   0.8352
   7.500   1.4392   0.01869   0.01176  -0.1126   0.0371   0.8398
   8.000   1.4755   0.01961   0.01283  -0.1094   0.0324   0.8623
   8.250   1.4890   0.01997   0.01336  -0.1067   0.0306   0.9998
   8.500   1.5067   0.02052   0.01393  -0.1051   0.0289   0.9998
   8.750   1.5221   0.02123   0.01465  -0.1032   0.0274   0.9998
   9.000   1.5395   0.02179   0.01525  -0.1015   0.0262   0.9998
   9.250   1.5551   0.02246   0.01594  -0.0996   0.0250   0.9998
   9.500   1.5682   0.02331   0.01682  -0.0974   0.0238   0.9998
   9.750   1.5841   0.02395   0.01751  -0.0956   0.0229   0.9998
  10.000   1.5985   0.02468   0.01828  -0.0937   0.0221   0.9998
  10.250   1.6107   0.02557   0.01919  -0.0914   0.0212   0.9998
  10.500   1.6215   0.02655   0.02024  -0.0890   0.0204   0.9998
  10.750   1.6348   0.02736   0.02110  -0.0870   0.0198   0.9998
  11.000   1.6472   0.02823   0.02202  -0.0850   0.0191   0.9998
  11.250   1.6578   0.02923   0.02306  -0.0828   0.0185   0.9998
  11.500   1.6646   0.03051   0.02439  -0.0801   0.0179   0.9998
  11.750   1.6704   0.03188   0.02583  -0.0775   0.0174   0.9998
  12.000   1.6801   0.03299   0.02702  -0.0753   0.0171   0.9998
  12.250   1.6887   0.03419   0.02829  -0.0732   0.0167   0.9998
  12.500   1.6957   0.03553   0.02971  -0.0709   0.0163   0.9998
  12.750   1.7024   0.03694   0.03118  -0.0688   0.0159   0.9998
  13.000   1.7069   0.03857   0.03287  -0.0666   0.0155   0.9998
  13.250   1.7073   0.04063   0.03500  -0.0642   0.0151   0.9998
  13.500   1.7021   0.04332   0.03778  -0.0617   0.0147   0.9998
  13.750   1.7081   0.04512   0.03968  -0.0603   0.0145   0.9998
  14.000   1.7112   0.04730   0.04196  -0.0589   0.0143   0.9998
  14.250   1.7126   0.04979   0.04455  -0.0578   0.0140   0.9998
  14.500   1.7134   0.05248   0.04733  -0.0569   0.0138   0.9998
  14.750   1.7129   0.05544   0.05039  -0.0562   0.0136   0.9998
  15.000   1.7112   0.05868   0.05372  -0.0558   0.0133   0.9998
