  
       XFOIL         Version 6.97
  
 Calculated polar for: NACA 0012                                       
  
 1 1 Reynolds number fixed          Mach number fixed         
  
 xtrf =   1.000 (top)        1.000 (bottom)  
 Mach =   0.000     Re =     1.000 e 6     Ncrit =   9.000
  
   alpha    CL        CD       CDp       CM     Top_Xtr  Bot_Xtr
  ------ -------- --------- --------- -------- -------- --------
 -15.000  -0.5539   0.04172   0.03707  -0.1641   0.8736   0.0276
 -14.750  -0.5101   0.04157   0.03685  -0.1692   0.8736   0.0290
 -14.500  -0.4698   0.04156   0.03681  -0.1732   0.8736   0.0305
 -14.000  -0.3913   0.04153   0.03673  -0.1805   0.8737   0.0340
 -13.750  -0.3696   0.04001   0.03516  -0.1805   0.8739   0.0355
 -13.500  -0.3443   0.03916   0.03429  -0.1813   0.8740   0.0373
 -13.250  -0.3207   0.03860   0.03371  -0.1816   0.8741   0.0394
 -13.000  -0.2964   0.03812   0.03323  -0.1820   0.8743   0.0420
 -12.750  -0.2735   0.03779   0.03287  -0.1819   0.8744   0.0447
 -12.500  -0.2482   0.03749   0.03259  -0.1823   0.8746   0.0483
 -12.250  -0.2233   0.03728   0.03238  -0.1826   0.8748   0.0522
 -12.000  -0.1984   0.03714   0.03226  -0.1828   0.8750   0.0567
 -11.750  -0.1731   0.03707   0.03219  -0.1831   0.8752   0.0621
 -11.500  -0.1473   0.03704   0.03217  -0.1833   0.8755   0.0683
 -11.250  -0.1211   0.03705   0.03221  -0.1837   0.8757   0.0753
 -11.000  -0.0947   0.03710   0.03229  -0.1840   0.8761   0.0840
 -10.750  -0.0678   0.03719   0.03241  -0.1844   0.8764   0.0941
 -10.500  -0.0406   0.03730   0.03256  -0.1849   0.8768   0.1049
 -10.250  -0.0132   0.03744   0.03274  -0.1853   0.8772   0.1171
 -10.000   0.0142   0.03760   0.03294  -0.1857   0.8777   0.1305
  -9.750   0.0423   0.03777   0.03317  -0.1862   0.8782   0.1452
  -9.500   0.0704   0.03797   0.03342  -0.1867   0.8787   0.1620
  -9.250   0.0990   0.03819   0.03370  -0.1872   0.8793   0.1794
  -9.000   0.1280   0.03845   0.03402  -0.1878   0.8799   0.1982
  -8.750   0.1582   0.03876   0.03441  -0.1886   0.8806   0.2198
  -8.500   0.1906   0.03924   0.03495  -0.1898   0.8813   0.2427
  -8.250   0.2301   0.04018   0.03596  -0.1923   0.8821   0.2663
  -8.000   0.2792   0.04175   0.03759  -0.1966   0.8825   0.2905
  -7.750   0.3255   0.04307   0.03897  -0.2003   0.8827   0.3146
  -7.500   0.3522   0.04321   0.03915  -0.2003   0.8827   0.3324
  -7.250   0.3577   0.04207   0.03805  -0.1962   0.8825   0.3428
  -7.000   0.3622   0.04084   0.03686  -0.1919   0.8819   0.3531
  -6.750   0.3827   0.04063   0.03670  -0.1907   0.8814   0.3673
  -6.500   0.4082   0.04077   0.03688  -0.1903   0.8812   0.3829
  -6.250   0.4332   0.04090   0.03705  -0.1899   0.8810   0.3965
  -6.000   0.4572   0.04095   0.03714  -0.1892   0.8804   0.4101
  -5.750   0.4824   0.04103   0.03727  -0.1888   0.8796   0.4252
  -5.500   0.5090   0.04115   0.03744  -0.1886   0.8787   0.4398
  -5.250   0.5365   0.04131   0.03764  -0.1885   0.8779   0.4522
  -5.000   0.5640   0.04150   0.03787  -0.1884   0.8773   0.4640
  -4.750   0.5921   0.04169   0.03812  -0.1885   0.8768   0.4756
  -4.500   0.6257   0.04190   0.03836  -0.1894   0.8758   0.4866
  -4.250   0.6981   0.04329   0.03979  -0.1974   0.8740   0.5023
  -4.000   0.7115   0.04341   0.03997  -0.1947   0.8733   0.5111
  -3.750   0.7039   0.04189   0.03849  -0.1881   0.8684   0.5178
  -3.500   0.7816   0.03974   0.03637  -0.1962   0.8535   0.5330
  -3.250   0.8469   0.03736   0.03402  -0.2023   0.8445   0.5455
  -2.750   0.8732   0.03619   0.03294  -0.1966   0.8297   0.5611
  -2.500   0.8834   0.03519   0.03105  -0.1931   0.6124   0.5681
  -2.250   0.8992   0.03544   0.03089  -0.1908   0.5314   0.5757
  -2.000   0.9207   0.03539   0.03053  -0.1894   0.4650   0.5824
  -1.750   0.9496   0.03483   0.02967  -0.1893   0.4073   0.5900
  -1.500   0.9761   0.03452   0.02915  -0.1889   0.3616   0.5963
  -1.250   1.0019   0.03430   0.02874  -0.1883   0.3217   0.6030
  -1.000   1.0274   0.03411   0.02838  -0.1876   0.2830   0.6095
  -0.750   1.0527   0.03393   0.02802  -0.1869   0.2457   0.6157
  -0.500   1.0781   0.03378   0.02771  -0.1862   0.2134   0.6211
  -0.250   1.1043   0.03358   0.02734  -0.1856   0.1837   0.6268
   0.000   1.1303   0.03340   0.02703  -0.1850   0.1557   0.6320
   0.250   1.1553   0.03334   0.02683  -0.1842   0.1323   0.6380
   0.500   1.1797   0.03332   0.02673  -0.1834   0.1137   0.6422
   0.750   1.2040   0.03334   0.02665  -0.1825   0.0977   0.6471
   1.000   1.2282   0.03338   0.02663  -0.1816   0.0841   0.6518
   1.250   1.2522   0.03345   0.02664  -0.1806   0.0734   0.6558
   1.500   1.2762   0.03354   0.02668  -0.1796   0.0645   0.6606
   2.000   1.3236   0.03376   0.02684  -0.1776   0.0512   0.6680
   2.250   1.3473   0.03390   0.02695  -0.1766   0.0465   0.6720
   2.500   1.3708   0.03405   0.02708  -0.1756   0.0425   0.6758
   2.750   1.3937   0.03423   0.02727  -0.1744   0.0393   0.6785
   3.000   1.4164   0.03443   0.02748  -0.1732   0.0366   0.6817
   3.250   1.4389   0.03467   0.02770  -0.1720   0.0340   0.6855
   3.500   1.4611   0.03492   0.02799  -0.1708   0.0320   0.6883
   3.750   1.4824   0.03523   0.02829  -0.1694   0.0301   0.6905
   4.000   1.5038   0.03553   0.02864  -0.1680   0.0287   0.6930
   4.250   1.5250   0.03586   0.02898  -0.1666   0.0274   0.6961
   4.500   1.5455   0.03627   0.02939  -0.1651   0.0260   0.6995
   4.750   1.5658   0.03662   0.02980  -0.1635   0.0250   0.7010
   5.000   1.5855   0.03703   0.03024  -0.1619   0.0239   0.7026
   5.250   1.6035   0.03759   0.03081  -0.1600   0.0227   0.7042
   5.500   1.6230   0.03801   0.03129  -0.1583   0.0220   0.7064
   5.750   1.6420   0.03850   0.03182  -0.1566   0.0211   0.7098
   6.000   1.6601   0.03904   0.03239  -0.1548   0.0203   0.7120
   6.250   1.6751   0.03981   0.03320  -0.1525   0.0195   0.7129
   6.500   1.6918   0.04042   0.03388  -0.1504   0.0190   0.7139
   6.750   1.7077   0.04108   0.03460  -0.1483   0.0184   0.7149
   7.000   1.7227   0.04179   0.03537  -0.1460   0.0179   0.7160
   7.250   1.7367   0.04258   0.03621  -0.1436   0.0174   0.7175
   7.500   1.7484   0.04358   0.03726  -0.1410   0.0168   0.7194
   7.750   1.7577   0.04487   0.03861  -0.1380   0.0163   0.7234
   8.000   1.7714   0.04567   0.03949  -0.1357   0.0160   0.7241
   8.250   1.7837   0.04658   0.04049  -0.1332   0.0156   0.7247
   8.500   1.7950   0.04756   0.04154  -0.1306   0.0152   0.7253
   8.750   1.8051   0.04863   0.04269  -0.1279   0.0149   0.7259
   9.000   1.8130   0.04988   0.04401  -0.1249   0.0146   0.7266
   9.250   1.8194   0.05126   0.04546  -0.1219   0.0143   0.7275
   9.500   1.8230   0.05293   0.04721  -0.1186   0.0140   0.7284
   9.750   1.8207   0.05516   0.04954  -0.1147   0.0137   0.7295
  10.000   1.8243   0.05687   0.05135  -0.1116   0.0135   0.7309
  10.250   1.8288   0.05855   0.05314  -0.1087   0.0134   0.7334
  10.500   1.8336   0.06028   0.05496  -0.1060   0.0132   0.7357
  10.750   1.8375   0.06205   0.05684  -0.1033   0.0130   0.7362
  11.000   1.8397   0.06401   0.05890  -0.1006   0.0128   0.7367
  11.250   1.8392   0.06627   0.06127  -0.0978   0.0125   0.7373
  11.500   1.8385   0.06865   0.06374  -0.0952   0.0123   0.7379
  11.750   1.8354   0.07139   0.06659  -0.0928   0.0122   0.7387
  12.000   1.8320   0.07433   0.06963  -0.0907   0.0120   0.7395
  12.250   1.8265   0.07770   0.07312  -0.0890   0.0119   0.7403
  12.500   1.8193   0.08148   0.07702  -0.0877   0.0118   0.7412
  12.750   1.8098   0.08583   0.08149  -0.0870   0.0117   0.7423
  13.000   1.7980   0.09076   0.08655  -0.0870   0.0115   0.7434
  13.250   1.7835   0.09639   0.09232  -0.0878   0.0114   0.7447
  13.500   1.7678   0.10252   0.09858  -0.0895   0.0114   0.7466
  13.750   1.7490   0.10929   0.10551  -0.0921   0.0113   0.7474
  14.000   1.7289   0.11644   0.11282  -0.0954   0.0112   0.7476
  14.250   1.7096   0.12364   0.12018  -0.0993   0.0111   0.7479
  14.500   1.6964   0.12990   0.12658  -0.1029   0.0111   0.7482
  14.750   1.6819   0.13651   0.13333  -0.1070   0.0111   0.7485
  15.000   1.6677   0.14315   0.14011  -0.1115   0.0110   0.7489
