  
       XFOIL         Version 6.97
  
 Calculated polar for: NACA 0012                                       
  
 1 1 Reynolds number fixed          Mach number fixed         
  
 xtrf =   1.000 (top)        1.000 (bottom)  
 Mach =   0.000     Re =     1.000 e 6     Ncrit =   9.000
  
   alpha    CL        CD       CDp       CM     Top_Xtr  Bot_Xtr
  ------ -------- --------- --------- -------- -------- --------
 -15.000  -0.8534   0.02874   0.02394  -0.1243   0.9017   0.0210
 -14.000  -0.6767   0.02774   0.02275  -0.1426   0.9040   0.0259
 -13.750  -0.6524   0.02736   0.02230  -0.1428   0.9041   0.0269
 -13.500  -0.6264   0.02675   0.02167  -0.1438   0.9042   0.0283
 -13.250  -0.6021   0.02641   0.02130  -0.1439   0.9042   0.0296
 -13.000  -0.5780   0.02614   0.02098  -0.1439   0.9043   0.0308
 -12.750  -0.5528   0.02572   0.02055  -0.1443   0.9044   0.0326
 -12.500  -0.5286   0.02549   0.02029  -0.1442   0.9045   0.0342
 -12.250  -0.5037   0.02517   0.01995  -0.1444   0.9046   0.0362
 -12.000  -0.4796   0.02496   0.01972  -0.1442   0.9048   0.0383
 -11.750  -0.4551   0.02472   0.01947  -0.1442   0.9049   0.0408
 -11.250  -0.4066   0.02438   0.01912  -0.1439   0.9052   0.0468
 -11.000  -0.3821   0.02423   0.01897  -0.1437   0.9055   0.0503
 -10.750  -0.3575   0.02411   0.01885  -0.1435   0.9057   0.0543
 -10.500  -0.3326   0.02400   0.01875  -0.1434   0.9059   0.0591
 -10.250  -0.3075   0.02391   0.01867  -0.1433   0.9062   0.0646
 -10.000  -0.2819   0.02383   0.01862  -0.1432   0.9066   0.0713
  -9.750  -0.2563   0.02378   0.01859  -0.1432   0.9069   0.0794
  -9.500  -0.2300   0.02374   0.01859  -0.1433   0.9073   0.0885
  -9.000  -0.1764   0.02372   0.01866  -0.1436   0.9083   0.1122
  -8.750  -0.1488   0.02374   0.01873  -0.1439   0.9089   0.1264
  -8.250  -0.0894   0.02392   0.01905  -0.1453   0.9105   0.1623
  -8.000   0.0103   0.02646   0.02176  -0.1601   0.9128   0.2046
  -7.500   0.0502   0.02564   0.02104  -0.1574   0.9130   0.2404
  -7.250   0.0718   0.02542   0.02088  -0.1564   0.9131   0.2582
  -7.000   0.1020   0.02558   0.02111  -0.1570   0.9131   0.2790
  -6.750   0.1410   0.02619   0.02179  -0.1595   0.9129   0.3031
  -6.500   0.1095   0.02432   0.01992  -0.1477   0.9108   0.3065
  -6.250   0.1339   0.02420   0.01987  -0.1471   0.9096   0.3262
  -6.000   0.1618   0.02423   0.01996  -0.1472   0.9087   0.3461
  -5.750   0.1900   0.02431   0.02010  -0.1474   0.9083   0.3651
  -5.500   0.2182   0.02441   0.02026  -0.1476   0.9079   0.3835
  -5.250   0.2498   0.02450   0.02041  -0.1483   0.9070   0.4035
  -5.000   0.2835   0.02464   0.02060  -0.1495   0.9061   0.4214
  -4.750   0.3178   0.02483   0.02084  -0.1508   0.9055   0.4391
  -4.500   0.3614   0.02520   0.02128  -0.1539   0.9047   0.4588
  -4.250   0.4256   0.02650   0.02265  -0.1609   0.9037   0.4777
  -4.000   0.4003   0.02527   0.02144  -0.1505   0.9022   0.4842
  -3.750   0.4289   0.02492   0.02114  -0.1505   0.8974   0.4987
  -3.500   0.5025   0.02553   0.02182  -0.1590   0.8942   0.5196
  -3.250   0.5652   0.02177   0.01808  -0.1636   0.8620   0.5351
  -3.000   0.6235   0.01995   0.01630  -0.1684   0.8510   0.5498
  -2.750   0.6940   0.01748   0.01388  -0.1755   0.8431   0.5654
  -2.500   0.8613   0.00999   0.00634  -0.2008   0.8300   0.5844
  -2.250   0.8961   0.00901   0.00536  -0.2018   0.8232   0.5940
  -1.750   0.7916   0.01429   0.01018  -0.1709   0.6667   0.6027
  -1.500   0.7807   0.01553   0.01104  -0.1634   0.5905   0.6093
  -1.250   0.7914   0.01602   0.01126  -0.1600   0.5328   0.6174
  -1.000   0.8080   0.01631   0.01133  -0.1576   0.4821   0.6249
  -0.750   0.8270   0.01651   0.01130  -0.1557   0.4306   0.6327
  -0.500   0.8486   0.01666   0.01124  -0.1543   0.3843   0.6402
  -0.250   0.8713   0.01680   0.01122  -0.1531   0.3463   0.6469
   0.000   0.8944   0.01695   0.01120  -0.1520   0.3092   0.6537
   0.250   0.9181   0.01710   0.01119  -0.1510   0.2716   0.6597
   0.500   0.9424   0.01726   0.01118  -0.1501   0.2371   0.6663
   0.750   0.9666   0.01745   0.01123  -0.1492   0.2054   0.6718
   1.000   0.9911   0.01765   0.01129  -0.1484   0.1778   0.6780
   1.250   1.0157   0.01787   0.01139  -0.1476   0.1532   0.6828
   1.500   1.0405   0.01809   0.01150  -0.1469   0.1311   0.6880
   1.750   1.0654   0.01833   0.01164  -0.1461   0.1125   0.6928
   2.000   1.0899   0.01859   0.01182  -0.1453   0.0963   0.6969
   2.250   1.1145   0.01886   0.01201  -0.1446   0.0835   0.7019
   2.500   1.1389   0.01914   0.01224  -0.1437   0.0730   0.7057
   2.750   1.1632   0.01942   0.01249  -0.1429   0.0648   0.7094
   3.000   1.1875   0.01972   0.01274  -0.1421   0.0580   0.7138
   3.250   1.2115   0.02003   0.01302  -0.1412   0.0525   0.7171
   3.750   1.2588   0.02066   0.01365  -0.1393   0.0441   0.7231
   4.000   1.2824   0.02099   0.01397  -0.1383   0.0408   0.7271
   4.250   1.3053   0.02136   0.01434  -0.1373   0.0377   0.7292
   4.500   1.3279   0.02175   0.01472  -0.1362   0.0349   0.7313
   4.750   1.3505   0.02212   0.01512  -0.1350   0.0328   0.7337
   5.000   1.3726   0.02256   0.01555  -0.1339   0.0308   0.7366
   5.250   1.3948   0.02295   0.01597  -0.1327   0.0293   0.7397
   5.500   1.4161   0.02339   0.01643  -0.1314   0.0279   0.7411
   5.750   1.4365   0.02393   0.01699  -0.1299   0.0265   0.7426
   6.000   1.4573   0.02436   0.01747  -0.1285   0.0255   0.7443
   6.250   1.4777   0.02484   0.01798  -0.1271   0.0244   0.7463
   6.500   1.4962   0.02553   0.01868  -0.1254   0.0233   0.7489
   6.750   1.5164   0.02597   0.01917  -0.1239   0.0225   0.7514
   7.000   1.5354   0.02649   0.01973  -0.1223   0.0217   0.7525
   7.250   1.5534   0.02708   0.02036  -0.1205   0.0210   0.7536
   7.500   1.5690   0.02788   0.02119  -0.1184   0.0202   0.7549
   7.750   1.5857   0.02855   0.02193  -0.1164   0.0197   0.7564
   8.000   1.6028   0.02916   0.02261  -0.1145   0.0191   0.7583
   8.250   1.6192   0.02982   0.02331  -0.1126   0.0185   0.7606
   8.500   1.6347   0.03055   0.02408  -0.1106   0.0180   0.7629
   8.750   1.6473   0.03147   0.02504  -0.1081   0.0174   0.7638
   9.000   1.6561   0.03267   0.02631  -0.1051   0.0169   0.7648
   9.250   1.6702   0.03342   0.02716  -0.1029   0.0166   0.7661
   9.500   1.6829   0.03429   0.02810  -0.1006   0.0162   0.7675
   9.750   1.6949   0.03520   0.02908  -0.0982   0.0159   0.7691
  10.000   1.7055   0.03620   0.03015  -0.0956   0.0155   0.7708
  10.250   1.7153   0.03728   0.03130  -0.0930   0.0152   0.7728
  10.500   1.7238   0.03847   0.03255  -0.0904   0.0149   0.7745
  10.750   1.7279   0.03997   0.03412  -0.0872   0.0145   0.7754
  11.000   1.7240   0.04214   0.03639  -0.0832   0.0142   0.7763
  11.250   1.7313   0.04345   0.03780  -0.0807   0.0140   0.7775
  11.500   1.7375   0.04488   0.03934  -0.0781   0.0139   0.7787
  11.750   1.7420   0.04647   0.04104  -0.0754   0.0137   0.7800
  12.000   1.7447   0.04825   0.04291  -0.0727   0.0135   0.7814
  12.250   1.7471   0.05014   0.04490  -0.0702   0.0132   0.7829
  12.500   1.7469   0.05229   0.04716  -0.0676   0.0131   0.7843
  12.750   1.7473   0.05455   0.04951  -0.0653   0.0129   0.7855
  13.000   1.7455   0.05707   0.05213  -0.0631   0.0127   0.7864
  13.250   1.7417   0.05997   0.05514  -0.0613   0.0126   0.7873
  13.500   1.7368   0.06326   0.05855  -0.0600   0.0124   0.7883
  13.750   1.7302   0.06706   0.06246  -0.0592   0.0123   0.7892
  14.000   1.7212   0.07149   0.06701  -0.0591   0.0122   0.7901
  14.250   1.7087   0.07673   0.07239  -0.0598   0.0121   0.7910
  14.500   1.6929   0.08280   0.07860  -0.0613   0.0120   0.7919
  14.750   1.6736   0.08970   0.08565  -0.0637   0.0119   0.7926
  15.000   1.6523   0.09717   0.09328  -0.0669   0.0118   0.7932
