  
       XFOIL         Version 6.97
  
 Calculated polar for: NACA 2412                                       
  
 1 1 Reynolds number fixed          Mach number fixed         
  
 xtrf =   1.000 (top)        1.000 (bottom)  
 Mach =   0.000     Re =     1.000 e 6     Ncrit =   9.000
  
   alpha    CL        CD       CDp       CM     Top_Xtr  Bot_Xtr
  ------ -------- --------- --------- -------- -------- --------
 -15.000  -0.7350   0.03272   0.02866  -0.1480   0.9025   0.0188
 -14.750  -0.7001   0.03195   0.02778  -0.1516   0.9029   0.0194
 -14.500  -0.6638   0.03139   0.02711  -0.1551   0.9036   0.0199
 -13.500  -0.4799   0.03010   0.02550  -0.1755   0.9059   0.0231
 -13.250  -0.4502   0.02945   0.02479  -0.1773   0.9059   0.0241
 -13.000  -0.4233   0.02912   0.02444  -0.1780   0.9060   0.0250
 -12.750  -0.3969   0.02887   0.02414  -0.1785   0.9061   0.0259
 -12.500  -0.3708   0.02867   0.02388  -0.1788   0.9061   0.0267
 -12.250  -0.3423   0.02823   0.02341  -0.1799   0.9062   0.0279
 -12.000  -0.3161   0.02805   0.02321  -0.1802   0.9063   0.0291
 -11.750  -0.2902   0.02792   0.02302  -0.1803   0.9063   0.0302
 -11.500  -0.2629   0.02766   0.02274  -0.1809   0.9064   0.0316
 -11.250  -0.2369   0.02755   0.02261  -0.1811   0.9065   0.0331
 -11.000  -0.2114   0.02749   0.02251  -0.1810   0.9066   0.0346
 -10.750  -0.1843   0.02732   0.02235  -0.1815   0.9067   0.0365
 -10.500  -0.1587   0.02729   0.02228  -0.1814   0.9068   0.0384
 -10.250  -0.1320   0.02719   0.02219  -0.1816   0.9069   0.0408
 -10.000  -0.1066   0.02721   0.02218  -0.1815   0.9070   0.0430
  -9.750  -0.0799   0.02715   0.02213  -0.1817   0.9071   0.0460
  -9.500  -0.0537   0.02715   0.02213  -0.1817   0.9072   0.0491
  -9.250  -0.0279   0.02719   0.02216  -0.1816   0.9073   0.0526
  -9.000  -0.0017   0.02722   0.02220  -0.1816   0.9074   0.0570
  -8.750   0.0256   0.02727   0.02227  -0.1818   0.9075   0.0623
  -8.500   0.0586   0.02739   0.02241  -0.1831   0.9072   0.0686
  -8.250   0.0967   0.02759   0.02264  -0.1853   0.9067   0.0766
  -8.000   0.1355   0.02788   0.02295  -0.1876   0.9064   0.0862
  -7.750   0.1690   0.02809   0.02320  -0.1890   0.9062   0.0970
  -7.500   0.1997   0.02827   0.02343  -0.1898   0.9061   0.1094
  -7.250   0.2302   0.02845   0.02366  -0.1905   0.9061   0.1235
  -7.000   0.2610   0.02866   0.02393  -0.1913   0.9060   0.1384
  -6.750   0.2918   0.02890   0.02422  -0.1921   0.9059   0.1551
  -6.500   0.3234   0.02917   0.02455  -0.1931   0.9058   0.1733
  -6.250   0.3563   0.02950   0.02495  -0.1942   0.9057   0.1936
  -6.000   0.3903   0.02991   0.02543  -0.1956   0.9056   0.2157
  -5.750   0.4251   0.03039   0.02599  -0.1972   0.9055   0.2394
  -5.500   0.3879   0.02843   0.02405  -0.1845   0.8993   0.2398
  -5.250   0.4211   0.02857   0.02426  -0.1856   0.8987   0.2637
  -5.000   0.4564   0.02875   0.02451  -0.1872   0.8980   0.2873
  -4.750   0.4941   0.02898   0.02482  -0.1892   0.8975   0.3148
  -4.500   0.5342   0.02930   0.02522  -0.1916   0.8971   0.3421
  -4.250   0.5801   0.02978   0.02579  -0.1951   0.8967   0.3730
  -3.750   0.6063   0.02835   0.02449  -0.1890   0.8823   0.4132
  -3.500   0.6635   0.02708   0.02332  -0.1940   0.8727   0.4563
  -3.250   0.7403   0.02560   0.02192  -0.2027   0.8688   0.4978
  -3.000   0.7577   0.02520   0.02158  -0.2004   0.8619   0.5194
  -2.750   0.8319   0.02333   0.01977  -0.2086   0.8589   0.5500
  -2.500   0.8432   0.02336   0.01986  -0.2053   0.8534   0.5653
  -2.250   0.9229   0.02061   0.01715  -0.2143   0.8489   0.5883
  -1.500   0.9141   0.02262   0.01925  -0.1969   0.7707   0.6156
  -1.250   1.0116   0.01749   0.01370  -0.2084   0.7070   0.6328
  -1.000   1.0100   0.01835   0.01417  -0.2025   0.6405   0.6407
  -0.750   1.0222   0.01885   0.01447  -0.1993   0.6000   0.6481
  -0.500   1.0395   0.01919   0.01465  -0.1972   0.5674   0.6559
  -0.250   1.0581   0.01947   0.01478  -0.1952   0.5363   0.6633
   0.000   1.0789   0.01968   0.01488  -0.1937   0.5101   0.6702
   0.250   1.1004   0.01987   0.01495  -0.1924   0.4852   0.6773
   0.500   1.1223   0.02005   0.01504  -0.1911   0.4617   0.6829
   0.750   1.1445   0.02024   0.01513  -0.1899   0.4401   0.6895
   1.000   1.1669   0.02042   0.01524  -0.1887   0.4196   0.6942
   1.250   1.1895   0.02061   0.01534  -0.1876   0.3980   0.6995
   1.500   1.2116   0.02081   0.01542  -0.1863   0.3701   0.7043
   1.750   1.2334   0.02103   0.01550  -0.1851   0.3411   0.7087
   2.000   1.2556   0.02125   0.01557  -0.1839   0.3112   0.7136
   2.250   1.2772   0.02150   0.01564  -0.1826   0.2770   0.7168
   2.500   1.2988   0.02177   0.01576  -0.1813   0.2454   0.7203
   2.750   1.3199   0.02212   0.01591  -0.1799   0.2097   0.7249
   3.000   1.3408   0.02250   0.01612  -0.1785   0.1790   0.7280
   3.250   1.3614   0.02290   0.01637  -0.1771   0.1517   0.7303
   3.500   1.3819   0.02333   0.01666  -0.1757   0.1272   0.7328
   3.750   1.4025   0.02378   0.01698  -0.1743   0.1063   0.7360
   4.000   1.4231   0.02423   0.01733  -0.1730   0.0899   0.7389
   4.250   1.4432   0.02469   0.01773  -0.1715   0.0774   0.7403
   4.500   1.4630   0.02517   0.01815  -0.1700   0.0674   0.7419
   4.750   1.4827   0.02564   0.01860  -0.1685   0.0594   0.7437
   5.000   1.5022   0.02614   0.01906  -0.1669   0.0530   0.7459
   5.250   1.5216   0.02665   0.01954  -0.1654   0.0477   0.7492
   5.500   1.5405   0.02717   0.02006  -0.1638   0.0433   0.7509
   5.750   1.5591   0.02770   0.02059  -0.1621   0.0398   0.7519
   6.000   1.5771   0.02825   0.02116  -0.1603   0.0367   0.7532
   6.250   1.5942   0.02888   0.02178  -0.1584   0.0341   0.7546
   6.500   1.6120   0.02943   0.02237  -0.1567   0.0319   0.7565
   6.750   1.6281   0.03012   0.02307  -0.1547   0.0299   0.7588
   7.000   1.6452   0.03074   0.02371  -0.1529   0.0282   0.7618
   7.250   1.6593   0.03155   0.02454  -0.1506   0.0265   0.7627
   7.500   1.6756   0.03218   0.02522  -0.1487   0.0254   0.7638
   7.750   1.6904   0.03292   0.02599  -0.1465   0.0242   0.7652
   8.000   1.7027   0.03386   0.02696  -0.1441   0.0230   0.7667
   8.250   1.7176   0.03458   0.02775  -0.1420   0.0222   0.7685
   8.500   1.7310   0.03542   0.02863  -0.1398   0.0212   0.7705
   8.750   1.7423   0.03644   0.02968  -0.1373   0.0204   0.7726
   9.000   1.7524   0.03755   0.03084  -0.1346   0.0197   0.7740
   9.250   1.7649   0.03845   0.03181  -0.1324   0.0191   0.7752
   9.500   1.7755   0.03949   0.03291  -0.1299   0.0185   0.7765
   9.750   1.7853   0.04061   0.03409  -0.1274   0.0179   0.7778
  10.000   1.7929   0.04193   0.03546  -0.1246   0.0173   0.7793
  10.250   1.7959   0.04365   0.03725  -0.1214   0.0168   0.7808
  10.500   1.8046   0.04491   0.03859  -0.1189   0.0165   0.7825
  10.750   1.8129   0.04623   0.03999  -0.1165   0.0161   0.7841
  11.000   1.8202   0.04767   0.04150  -0.1140   0.0158   0.7854
  11.250   1.8255   0.04927   0.04318  -0.1114   0.0154   0.7865
  11.500   1.8304   0.05097   0.04495  -0.1089   0.0151   0.7877
  11.750   1.8331   0.05291   0.04696  -0.1064   0.0147   0.7889
  12.000   1.8306   0.05542   0.04956  -0.1035   0.0143   0.7900
  12.250   1.8245   0.05844   0.05269  -0.1007   0.0140   0.7912
  12.500   1.8285   0.06055   0.05489  -0.0989   0.0138   0.7926
  12.750   1.8304   0.06297   0.05741  -0.0972   0.0136   0.7939
  13.000   1.8308   0.06568   0.06022  -0.0956   0.0134   0.7950
  13.250   1.8296   0.06867   0.06331  -0.0943   0.0131   0.7961
  13.500   1.8277   0.07187   0.06661  -0.0932   0.0129   0.7970
  13.750   1.8244   0.07533   0.07018  -0.0924   0.0127   0.7980
  14.000   1.8202   0.07899   0.07394  -0.0918   0.0125   0.7989
  14.250   1.8141   0.08302   0.07808  -0.0915   0.0123   0.7998
  14.500   1.8062   0.08741   0.08257  -0.0916   0.0122   0.8007
  14.750   1.7955   0.09228   0.08756  -0.0920   0.0120   0.8015
  15.000   1.7822   0.09763   0.09303  -0.0928   0.0119   0.8023
