  
       XFOIL         Version 6.97
  
 Calculated polar for: NACA 0012                                       
  
 1 1 Reynolds number fixed          Mach number fixed         
  
 xtrf =   1.000 (top)        1.000 (bottom)  
 Mach =   0.000     Re =     1.000 e 6     Ncrit =   9.000
  
   alpha    CL        CD       CDp       CM     Top_Xtr  Bot_Xtr
  ------ -------- --------- --------- -------- -------- --------
 -15.000  -1.0049   0.02162   0.01647  -0.1022   0.8959   0.0190
 -14.750  -0.9848   0.02072   0.01549  -0.1027   0.8961   0.0194
 -14.500  -0.9663   0.01961   0.01434  -0.1032   0.8964   0.0201
 -14.250  -0.9437   0.01894   0.01364  -0.1035   0.8968   0.0207
 -14.000  -0.9202   0.01836   0.01300  -0.1038   0.8971   0.0214
 -13.750  -0.8961   0.01783   0.01241  -0.1041   0.8974   0.0221
 -13.500  -0.8723   0.01721   0.01172  -0.1044   0.8978   0.0227
 -13.250  -0.8490   0.01650   0.01099  -0.1047   0.8981   0.0236
 -13.000  -0.8236   0.01606   0.01052  -0.1050   0.8984   0.0246
 -12.750  -0.7976   0.01569   0.01010  -0.1053   0.8987   0.0256
 -12.500  -0.7728   0.01512   0.00949  -0.1055   0.8990   0.0267
 -12.250  -0.7469   0.01469   0.00905  -0.1058   0.8993   0.0279
 -12.000  -0.7202   0.01433   0.00866  -0.1061   0.8997   0.0292
 -11.750  -0.6941   0.01384   0.00815  -0.1064   0.9001   0.0307
 -11.500  -0.6672   0.01349   0.00779  -0.1068   0.9006   0.0324
 -11.250  -0.6403   0.01313   0.00741  -0.1071   0.9010   0.0343
 -11.000  -0.6131   0.01280   0.00709  -0.1074   0.9014   0.0365
 -10.750  -0.5860   0.01248   0.00675  -0.1077   0.9018   0.0388
 -10.500  -0.5584   0.01221   0.00648  -0.1081   0.9023   0.0415
 -10.250  -0.5310   0.01190   0.00619  -0.1084   0.9027   0.0446
 -10.000  -0.5034   0.01164   0.00593  -0.1087   0.9032   0.0481
  -9.750  -0.4756   0.01140   0.00570  -0.1091   0.9037   0.0525
  -9.500  -0.4478   0.01116   0.00548  -0.1094   0.9042   0.0574
  -9.250  -0.4199   0.01092   0.00527  -0.1097   0.9047   0.0635
  -9.000  -0.3920   0.01070   0.00509  -0.1101   0.9053   0.0709
  -8.750  -0.3640   0.01049   0.00491  -0.1104   0.9058   0.0797
  -8.500  -0.3360   0.01028   0.00475  -0.1107   0.9064   0.0902
  -8.250  -0.3079   0.01008   0.00461  -0.1110   0.9069   0.1018
  -8.000  -0.2798   0.00989   0.00448  -0.1113   0.9074   0.1148
  -7.750  -0.2516   0.00971   0.00435  -0.1117   0.9080   0.1300
  -7.500  -0.2234   0.00953   0.00425  -0.1120   0.9084   0.1483
  -7.250  -0.1951   0.00934   0.00415  -0.1123   0.9089   0.1692
  -7.000  -0.1665   0.00916   0.00406  -0.1127   0.9094   0.1897
  -6.750  -0.1382   0.00902   0.00401  -0.1131   0.9099   0.2102
  -6.500  -0.1100   0.00884   0.00391  -0.1132   0.9094   0.2328
  -6.250  -0.0824   0.00865   0.00379  -0.1132   0.9077   0.2552
  -6.000  -0.0547   0.00841   0.00363  -0.1132   0.9053   0.2790
  -5.750  -0.0263   0.00819   0.00348  -0.1133   0.9036   0.3025
  -5.500   0.0023   0.00799   0.00335  -0.1134   0.9023   0.3256
  -5.250   0.0312   0.00779   0.00322  -0.1135   0.9011   0.3484
  -5.000   0.0601   0.00765   0.00312  -0.1136   0.8999   0.3684
  -4.750   0.0885   0.00754   0.00307  -0.1137   0.8988   0.3899
  -4.500   0.1168   0.00741   0.00302  -0.1138   0.8973   0.4111
  -4.250   0.1453   0.00728   0.00296  -0.1139   0.8957   0.4313
  -4.000   0.1741   0.00714   0.00287  -0.1139   0.8939   0.4512
  -3.750   0.2033   0.00699   0.00276  -0.1141   0.8922   0.4700
  -3.500   0.2328   0.00683   0.00265  -0.1142   0.8904   0.4876
  -3.250   0.2611   0.00673   0.00260  -0.1141   0.8881   0.5052
  -3.000   0.2895   0.00661   0.00255  -0.1141   0.8855   0.5227
  -2.750   0.3185   0.00646   0.00243  -0.1141   0.8826   0.5391
  -2.500   0.3483   0.00631   0.00230  -0.1142   0.8796   0.5547
  -2.250   0.3759   0.00619   0.00226  -0.1140   0.8757   0.5702
  -2.000   0.4050   0.00602   0.00212  -0.1140   0.8713   0.5850
  -1.750   0.4329   0.00590   0.00205  -0.1137   0.8660   0.5985
  -1.500   0.4618   0.00574   0.00191  -0.1136   0.8599   0.6118
  -1.250   0.4889   0.00562   0.00184  -0.1132   0.8510   0.6245
  -0.750   0.5249   0.00600   0.00172  -0.1083   0.6862   0.6464
  -0.500   0.5400   0.00655   0.00198  -0.1055   0.6143   0.6564
  -0.250   0.5590   0.00694   0.00216  -0.1036   0.5599   0.6666
   0.000   0.5802   0.00727   0.00232  -0.1021   0.5145   0.6764
   0.250   0.6026   0.00757   0.00247  -0.1009   0.4734   0.6861
   0.500   0.6251   0.00788   0.00263  -0.0997   0.4318   0.6944
   0.750   0.6487   0.00817   0.00279  -0.0987   0.3951   0.7024
   1.000   0.6729   0.00846   0.00294  -0.0979   0.3611   0.7107
   1.250   0.6970   0.00876   0.00312  -0.0971   0.3262   0.7177
   1.500   0.7213   0.00908   0.00330  -0.0963   0.2911   0.7245
   2.000   0.7705   0.00974   0.00370  -0.0949   0.2282   0.7366
   2.250   0.7952   0.01009   0.00392  -0.0942   0.1989   0.7422
   2.500   0.8201   0.01043   0.00414  -0.0936   0.1735   0.7474
   2.750   0.8450   0.01078   0.00439  -0.0929   0.1515   0.7517
   3.000   0.8700   0.01113   0.00463  -0.0923   0.1304   0.7567
   3.250   0.8947   0.01148   0.00489  -0.0916   0.1119   0.7601
   3.500   0.9196   0.01183   0.00517  -0.0910   0.0972   0.7637
   3.750   0.9445   0.01217   0.00544  -0.0903   0.0853   0.7679
   4.000   0.9692   0.01251   0.00572  -0.0896   0.0752   0.7709
   4.250   0.9939   0.01283   0.00602  -0.0890   0.0668   0.7738
   4.500   1.0185   0.01317   0.00632  -0.0882   0.0598   0.7773
   4.750   1.0431   0.01352   0.00663  -0.0875   0.0542   0.7808
   5.000   1.0673   0.01384   0.00694  -0.0868   0.0495   0.7832
   5.250   1.0915   0.01416   0.00725  -0.0860   0.0454   0.7862
   5.500   1.1156   0.01449   0.00758  -0.0852   0.0420   0.7896
   5.750   1.1393   0.01487   0.00794  -0.0844   0.0390   0.7926
   6.000   1.1628   0.01519   0.00827  -0.0835   0.0364   0.7952
   6.250   1.1861   0.01555   0.00864  -0.0826   0.0342   0.7984
   6.500   1.2089   0.01590   0.00899  -0.0816   0.0321   0.8012
   6.750   1.2309   0.01627   0.00939  -0.0804   0.0305   0.8041
   7.000   1.2525   0.01659   0.00974  -0.0792   0.0290   0.8067
   7.250   1.2720   0.01708   0.01024  -0.0776   0.0275   0.8095
   7.500   1.2934   0.01738   0.01059  -0.0764   0.0265   0.8125
   7.750   1.3144   0.01774   0.01100  -0.0751   0.0254   0.8154
   8.000   1.3334   0.01831   0.01158  -0.0735   0.0242   0.8183
   8.250   1.3539   0.01872   0.01205  -0.0722   0.0234   0.8209
   8.500   1.3739   0.01913   0.01252  -0.0708   0.0226   0.8240
   8.750   1.3932   0.01959   0.01303  -0.0693   0.0218   0.8269
   9.000   1.4098   0.02025   0.01372  -0.0674   0.0210   0.8300
   9.500   1.4445   0.02136   0.01499  -0.0639   0.0199   0.8367
   9.750   1.4617   0.02189   0.01560  -0.0622   0.0193   0.8408
  10.000   1.4783   0.02245   0.01624  -0.0604   0.0188   0.8461
  10.500   1.4976   0.02397   0.01811  -0.0546   0.0176   0.9998
  10.750   1.5138   0.02458   0.01879  -0.0528   0.0173   0.9998
  11.000   1.5278   0.02532   0.01961  -0.0508   0.0169   0.9998
  11.250   1.5409   0.02613   0.02049  -0.0487   0.0165   0.9998
  11.500   1.5532   0.02699   0.02140  -0.0466   0.0162   0.9998
  11.750   1.5644   0.02792   0.02239  -0.0444   0.0158   0.9998
  12.000   1.5739   0.02897   0.02350  -0.0421   0.0155   0.9998
  12.250   1.5795   0.03031   0.02490  -0.0394   0.0152   0.9998
  12.500   1.5775   0.03220   0.02688  -0.0361   0.0149   0.9998
  12.750   1.5846   0.03349   0.02827  -0.0338   0.0147   0.9998
  13.000   1.5915   0.03481   0.02969  -0.0317   0.0145   0.9998
  13.250   1.5964   0.03633   0.03131  -0.0295   0.0143   0.9998
  13.500   1.6002   0.03797   0.03305  -0.0274   0.0141   0.9998
  13.750   1.6023   0.03982   0.03499  -0.0253   0.0139   0.9998
  14.000   1.6030   0.04187   0.03714  -0.0235   0.0137   0.9998
  14.250   1.6033   0.04408   0.03945  -0.0219   0.0135   0.9998
  14.500   1.6022   0.04662   0.04209  -0.0208   0.0133   0.9998
  14.750   1.5989   0.04971   0.04528  -0.0202   0.0132   0.9998
  15.000   1.5956   0.05309   0.04876  -0.0203   0.0130   0.9998
